<?xml version="1.0" encoding="UTF-8"?>

<!-- generated on 2022-11-27 17:05:37 by Eclipse SUMO netedit Version 1.14.1
<configuration xmlns:xsi="http://www.w3.org/2001/XMLSchema-instance" xsi:noNamespaceSchemaLocation="http://sumo.dlr.de/xsd/netconvertConfiguration.xsd">

    <input>
        <sumo-net-file value="C:\Users\parks_d2nhiic\Desktop\BlaFT\blaft-main\blaft-main\intersection_net.net.xml"/>
    </input>

    <output>
        <output-file value="C:\Users\parks_d2nhiic\Desktop\BlaFT\blaft-main\blaft-main\intersection_net.net.xml"/>
    </output>

    <processing>
        <geometry.min-radius.fix.railways value="false"/>
        <geometry.max-grade.fix value="false"/>
        <offset.disable-normalization value="true"/>
        <lefthand value="false"/>
    </processing>

    <junctions>
        <no-turnarounds value="true"/>
        <junctions.corner-detail value="5"/>
        <junctions.limit-turn-speed value="5.5"/>
        <rectangular-lane-cut value="false"/>
    </junctions>

    <pedestrian>
        <walkingareas value="false"/>
    </pedestrian>

</configuration>
-->

<net version="1.9" junctionCornerDetail="5" limitTurnSpeed="5.50" xmlns:xsi="http://www.w3.org/2001/XMLSchema-instance" xsi:noNamespaceSchemaLocation="http://sumo.dlr.de/xsd/net_file.xsd">

    <location netOffset="0.00,0.00" convBoundary="-250.00,0.00,250.00,500.00" origBoundary="-10000000000.00,-10000000000.00,10000000000.00,10000000000.00" projParameter="!"/>

    <edge id=":n0_0" function="internal">
        <lane id=":n0_0_0" index="0" speed="12.92" length="38.71" shape="-261.20,12.80 -259.70,2.30 -255.20,-5.20 -247.70,-9.70 -237.20,-11.20"/>
        <lane id=":n0_0_1" index="1" speed="12.06" length="33.55" shape="-258.00,12.80 -256.70,3.70 -252.80,-2.80 -246.30,-6.70 -237.20,-8.00"/>
        <lane id=":n0_0_2" index="2" speed="11.12" length="28.38" shape="-254.80,12.80 -253.70,5.10 -250.40,-0.40 -244.90,-3.70 -237.20,-4.80"/>
        <lane id=":n0_0_3" index="3" speed="10.10" length="23.22" shape="-251.60,12.80 -250.70,6.50 -248.00,2.00 -243.50,-0.70 -237.20,-1.60"/>
    </edge>
    <edge id=":n0_4" function="internal">
        <lane id=":n0_4_0" index="0" speed="3.90" length="2.58" shape="-237.20,11.20 -237.90,11.30 -238.40,11.60 -238.70,12.10 -238.80,12.80"/>
        <lane id=":n0_4_1" index="1" speed="6.08" length="7.74" shape="-237.20,8.00 -239.30,8.30 -240.80,9.20 -241.70,10.70 -242.00,12.80"/>
        <lane id=":n0_4_2" index="2" speed="7.66" length="12.90" shape="-237.20,4.80 -240.70,5.30 -243.20,6.80 -244.70,9.30 -245.20,12.80"/>
        <lane id=":n0_4_3" index="3" speed="8.96" length="18.06" shape="-237.20,1.60 -242.10,2.30 -245.60,4.40 -247.70,7.90 -248.40,12.80"/>
    </edge>
    <edge id=":n1_0" function="internal">
        <lane id=":n1_0_0" index="0" speed="3.90" length="2.58" shape="-11.20,12.80 -11.30,12.10 -11.60,11.60 -12.10,11.30 -12.80,11.20"/>
        <lane id=":n1_0_1" index="1" speed="6.08" length="7.74" shape="-8.00,12.80 -8.30,10.70 -9.20,9.20 -10.70,8.30 -12.80,8.00"/>
        <lane id=":n1_0_2" index="2" speed="7.66" length="12.90" shape="-4.80,12.80 -5.30,9.30 -6.80,6.80 -9.30,5.30 -12.80,4.80"/>
        <lane id=":n1_0_3" index="3" speed="8.96" length="18.06" shape="-1.60,12.80 -2.30,7.90 -4.40,4.40 -7.90,2.30 -12.80,1.60"/>
    </edge>
    <edge id=":n1_4" function="internal">
        <lane id=":n1_4_0" index="0" speed="12.92" length="38.71" shape="-12.80,-11.20 -2.30,-9.70 5.20,-5.20 9.70,2.30 11.20,12.80"/>
        <lane id=":n1_4_1" index="1" speed="12.06" length="33.55" shape="-12.80,-8.00 -3.70,-6.70 2.80,-2.80 6.70,3.70 8.00,12.80"/>
        <lane id=":n1_4_2" index="2" speed="11.12" length="28.38" shape="-12.80,-4.80 -5.10,-3.70 0.40,-0.40 3.70,5.10 4.80,12.80"/>
        <lane id=":n1_4_3" index="3" speed="10.10" length="23.22" shape="-12.80,-1.60 -6.50,-0.70 -2.00,2.00 0.70,6.50 1.60,12.80"/>
    </edge>
    <edge id=":n2_0" function="internal">
        <lane id=":n2_0_0" index="0" speed="12.92" length="38.71" shape="-237.20,261.20 -247.70,259.70 -255.20,255.20 -259.70,247.70 -261.20,237.20"/>
        <lane id=":n2_0_1" index="1" speed="12.06" length="33.55" shape="-237.20,258.00 -246.30,256.70 -252.80,252.80 -256.70,246.30 -258.00,237.20"/>
        <lane id=":n2_0_2" index="2" speed="11.12" length="28.38" shape="-237.20,254.80 -244.90,253.70 -250.40,250.40 -253.70,244.90 -254.80,237.20"/>
        <lane id=":n2_0_3" index="3" speed="10.10" length="23.22" shape="-237.20,251.60 -243.50,250.70 -248.00,248.00 -250.70,243.50 -251.60,237.20"/>
    </edge>
    <edge id=":n2_4" function="internal">
        <lane id=":n2_4_0" index="0" speed="3.90" length="2.58" shape="-238.80,237.20 -238.70,237.90 -238.40,238.40 -237.90,238.70 -237.20,238.80"/>
        <lane id=":n2_4_1" index="1" speed="6.08" length="7.74" shape="-242.00,237.20 -241.70,239.30 -240.80,240.80 -239.30,241.70 -237.20,242.00"/>
        <lane id=":n2_4_2" index="2" speed="7.66" length="12.90" shape="-245.20,237.20 -244.70,240.70 -243.20,243.20 -240.70,244.70 -237.20,245.20"/>
        <lane id=":n2_4_3" index="3" speed="8.96" length="18.06" shape="-248.40,237.20 -247.70,242.10 -245.60,245.60 -242.10,247.70 -237.20,248.40"/>
    </edge>
    <edge id=":n3_0" function="internal">
        <lane id=":n3_0_0" index="0" speed="12.28" length="34.84" shape="-11.20,282.80 -12.55,273.35 -16.60,266.60 -23.35,262.55 -32.80,261.20"/>
    </edge>
    <edge id=":n3_1" function="internal">
        <lane id=":n3_1_0" index="0" speed="13.89" length="65.60" shape="-8.00,282.80 -8.00,217.20"/>
        <lane id=":n3_1_1" index="1" speed="13.89" length="65.60" shape="-4.80,282.80 -4.80,217.20"/>
    </edge>
    <edge id=":n3_3" function="internal">
        <lane id=":n3_3_0" index="0" speed="13.89" length="50.03" shape="-1.60,282.80 2.53,273.68 12.27,262.27 23.68,252.53 32.80,248.40"/>
    </edge>
    <edge id=":n3_4" function="internal">
        <lane id=":n3_4_0" index="0" speed="12.28" length="34.84" shape="32.80,261.20 23.35,262.55 16.60,266.60 12.55,273.35 11.20,282.80"/>
    </edge>
    <edge id=":n3_5" function="internal">
        <lane id=":n3_5_0" index="0" speed="13.89" length="65.60" shape="32.80,258.00 -32.80,258.00"/>
        <lane id=":n3_5_1" index="1" speed="13.89" length="65.60" shape="32.80,254.80 -32.80,254.80"/>
    </edge>
    <edge id=":n3_7" function="internal">
        <lane id=":n3_7_0" index="0" speed="13.89" length="50.03" shape="32.80,251.60 23.68,247.48 12.27,237.73 2.53,226.33 -1.60,217.20"/>
    </edge>
    <edge id=":n3_8" function="internal">
        <lane id=":n3_8_0" index="0" speed="12.28" length="34.84" shape="11.20,217.20 12.55,226.65 16.60,233.40 23.35,237.45 32.80,238.80"/>
    </edge>
    <edge id=":n3_9" function="internal">
        <lane id=":n3_9_0" index="0" speed="13.89" length="65.60" shape="8.00,217.20 8.00,282.80"/>
        <lane id=":n3_9_1" index="1" speed="13.89" length="65.60" shape="4.80,217.20 4.80,282.80"/>
    </edge>
    <edge id=":n3_11" function="internal">
        <lane id=":n3_11_0" index="0" speed="13.89" length="50.03" shape="1.60,217.20 -2.53,226.33 -12.27,237.73 -23.68,247.48 -32.80,251.60"/>
    </edge>
    <edge id=":n3_12" function="internal">
        <lane id=":n3_12_0" index="0" speed="12.28" length="34.84" shape="-32.80,238.80 -23.35,237.45 -16.60,233.40 -12.55,226.65 -11.20,217.20"/>
    </edge>
    <edge id=":n3_13" function="internal">
        <lane id=":n3_13_0" index="0" speed="13.89" length="65.60" shape="-32.80,242.00 32.80,242.00"/>
        <lane id=":n3_13_1" index="1" speed="13.89" length="65.60" shape="-32.80,245.20 32.80,245.20"/>
    </edge>
    <edge id=":n3_15" function="internal">
        <lane id=":n3_15_0" index="0" speed="13.89" length="50.03" shape="-32.80,248.40 -23.68,252.53 -12.27,262.27 -2.53,273.68 1.60,282.80"/>
    </edge>
    <edge id=":n4_0" function="internal">
        <lane id=":n4_0_0" index="0" speed="3.90" length="2.58" shape="238.80,262.80 238.70,262.10 238.40,261.60 237.90,261.30 237.20,261.20"/>
        <lane id=":n4_0_1" index="1" speed="6.08" length="7.74" shape="242.00,262.80 241.70,260.70 240.80,259.20 239.30,258.30 237.20,258.00"/>
        <lane id=":n4_0_2" index="2" speed="7.66" length="12.90" shape="245.20,262.80 244.70,259.30 243.20,256.80 240.70,255.30 237.20,254.80"/>
        <lane id=":n4_0_3" index="3" speed="8.96" length="18.06" shape="248.40,262.80 247.70,257.90 245.60,254.40 242.10,252.30 237.20,251.60"/>
    </edge>
    <edge id=":n4_4" function="internal">
        <lane id=":n4_4_0" index="0" speed="12.92" length="38.71" shape="237.20,238.80 247.70,240.30 255.20,244.80 259.70,252.30 261.20,262.80"/>
        <lane id=":n4_4_1" index="1" speed="12.06" length="33.55" shape="237.20,242.00 246.30,243.30 252.80,247.20 256.70,253.70 258.00,262.80"/>
        <lane id=":n4_4_2" index="2" speed="11.12" length="28.38" shape="237.20,245.20 244.90,246.30 250.40,249.60 253.70,255.10 254.80,262.80"/>
        <lane id=":n4_4_3" index="3" speed="10.10" length="23.22" shape="237.20,248.40 243.50,249.30 248.00,252.00 250.70,256.50 251.60,262.80"/>
    </edge>
    <edge id=":n5_0" function="internal">
        <lane id=":n5_0_0" index="0" speed="12.92" length="38.71" shape="12.80,511.20 2.30,509.70 -5.20,505.20 -9.70,497.70 -11.20,487.20"/>
        <lane id=":n5_0_1" index="1" speed="12.06" length="33.55" shape="12.80,508.00 3.70,506.70 -2.80,502.80 -6.70,496.30 -8.00,487.20"/>
        <lane id=":n5_0_2" index="2" speed="11.12" length="28.38" shape="12.80,504.80 5.10,503.70 -0.40,500.40 -3.70,494.90 -4.80,487.20"/>
        <lane id=":n5_0_3" index="3" speed="10.10" length="23.22" shape="12.80,501.60 6.50,500.70 2.00,498.00 -0.70,493.50 -1.60,487.20"/>
    </edge>
    <edge id=":n5_4" function="internal">
        <lane id=":n5_4_0" index="0" speed="3.90" length="2.58" shape="11.20,487.20 11.30,487.90 11.60,488.40 12.10,488.70 12.80,488.80"/>
        <lane id=":n5_4_1" index="1" speed="6.08" length="7.74" shape="8.00,487.20 8.30,489.30 9.20,490.80 10.70,491.70 12.80,492.00"/>
        <lane id=":n5_4_2" index="2" speed="7.66" length="12.90" shape="4.80,487.20 5.30,490.70 6.80,493.20 9.30,494.70 12.80,495.20"/>
        <lane id=":n5_4_3" index="3" speed="8.96" length="18.06" shape="1.60,487.20 2.30,492.10 4.40,495.60 7.90,497.70 12.80,498.40"/>
    </edge>
    <edge id=":n6_0" function="internal">
        <lane id=":n6_0_0" index="0" speed="12.92" length="38.71" shape="261.20,487.20 259.70,497.70 255.20,505.20 247.70,509.70 237.20,511.20"/>
        <lane id=":n6_0_1" index="1" speed="12.06" length="33.55" shape="258.00,487.20 256.70,496.30 252.80,502.80 246.30,506.70 237.20,508.00"/>
        <lane id=":n6_0_2" index="2" speed="11.12" length="28.38" shape="254.80,487.20 253.70,494.90 250.40,500.40 244.90,503.70 237.20,504.80"/>
        <lane id=":n6_0_3" index="3" speed="10.10" length="23.22" shape="251.60,487.20 250.70,493.50 248.00,498.00 243.50,500.70 237.20,501.60"/>
    </edge>
    <edge id=":n6_4" function="internal">
        <lane id=":n6_4_0" index="0" speed="3.90" length="2.58" shape="237.20,488.80 237.90,488.70 238.40,488.40 238.70,487.90 238.80,487.20"/>
        <lane id=":n6_4_1" index="1" speed="6.08" length="7.74" shape="237.20,492.00 239.30,491.70 240.80,490.80 241.70,489.30 242.00,487.20"/>
        <lane id=":n6_4_2" index="2" speed="7.66" length="12.90" shape="237.20,495.20 240.70,494.70 243.20,493.20 244.70,490.70 245.20,487.20"/>
        <lane id=":n6_4_3" index="3" speed="8.96" length="18.06" shape="237.20,498.40 242.10,497.70 245.60,495.60 247.70,492.10 248.40,487.20"/>
    </edge>

    <edge id="0to1" from="n0" to="n1" priority="-1">
        <lane id="0to1_0" index="0" speed="13.89" length="224.40" shape="-237.20,-11.20 -12.80,-11.20"/>
        <lane id="0to1_1" index="1" speed="13.89" length="224.40" shape="-237.20,-8.00 -12.80,-8.00"/>
        <lane id="0to1_2" index="2" speed="13.89" length="224.40" shape="-237.20,-4.80 -12.80,-4.80"/>
        <lane id="0to1_3" index="3" speed="13.89" length="224.40" shape="-237.20,-1.60 -12.80,-1.60"/>
    </edge>
    <edge id="0to2" from="n0" to="n2" priority="-1">
        <lane id="0to2_0" index="0" speed="13.89" length="224.40" shape="-238.80,12.80 -238.80,237.20"/>
        <lane id="0to2_1" index="1" speed="13.89" length="224.40" shape="-242.00,12.80 -242.00,237.20"/>
        <lane id="0to2_2" index="2" speed="13.89" length="224.40" shape="-245.20,12.80 -245.20,237.20"/>
        <lane id="0to2_3" index="3" speed="13.89" length="224.40" shape="-248.40,12.80 -248.40,237.20"/>
    </edge>
    <edge id="1to0" from="n1" to="n0" priority="-1">
        <lane id="1to0_0" index="0" speed="13.89" length="224.40" shape="-12.80,11.20 -237.20,11.20"/>
        <lane id="1to0_1" index="1" speed="13.89" length="224.40" shape="-12.80,8.00 -237.20,8.00"/>
        <lane id="1to0_2" index="2" speed="13.89" length="224.40" shape="-12.80,4.80 -237.20,4.80"/>
        <lane id="1to0_3" index="3" speed="13.89" length="224.40" shape="-12.80,1.60 -237.20,1.60"/>
    </edge>
    <edge id="1to3" from="n1" to="n3" priority="-1">
        <lane id="1to3_0" index="0" speed="13.89" length="204.40" shape="11.20,12.80 11.20,217.20"/>
        <lane id="1to3_1" index="1" speed="13.89" length="204.40" shape="8.00,12.80 8.00,217.20"/>
        <lane id="1to3_2" index="2" speed="13.89" length="204.40" shape="4.80,12.80 4.80,217.20"/>
        <lane id="1to3_3" index="3" speed="13.89" length="204.40" shape="1.60,12.80 1.60,217.20"/>
    </edge>
    <edge id="2to0" from="n2" to="n0" priority="-1">
        <lane id="2to0_0" index="0" speed="13.89" length="224.40" shape="-261.20,237.20 -261.20,12.80"/>
        <lane id="2to0_1" index="1" speed="13.89" length="224.40" shape="-258.00,237.20 -258.00,12.80"/>
        <lane id="2to0_2" index="2" speed="13.89" length="224.40" shape="-254.80,237.20 -254.80,12.80"/>
        <lane id="2to0_3" index="3" speed="13.89" length="224.40" shape="-251.60,237.20 -251.60,12.80"/>
    </edge>
    <edge id="2to3" from="n2" to="n3" priority="-1">
        <lane id="2to3_0" index="0" speed="13.89" length="204.40" shape="-237.20,238.80 -32.80,238.80"/>
        <lane id="2to3_1" index="1" speed="13.89" length="204.40" shape="-237.20,242.00 -32.80,242.00"/>
        <lane id="2to3_2" index="2" speed="13.89" length="204.40" shape="-237.20,245.20 -32.80,245.20"/>
        <lane id="2to3_3" index="3" speed="13.89" length="204.40" shape="-237.20,248.40 -32.80,248.40"/>
    </edge>
    <edge id="3to1" from="n3" to="n1" priority="-1">
        <lane id="3to1_0" index="0" speed="13.89" length="204.40" shape="-11.20,217.20 -11.20,12.80"/>
        <lane id="3to1_1" index="1" speed="13.89" length="204.40" shape="-8.00,217.20 -8.00,12.80"/>
        <lane id="3to1_2" index="2" speed="13.89" length="204.40" shape="-4.80,217.20 -4.80,12.80"/>
        <lane id="3to1_3" index="3" speed="13.89" length="204.40" shape="-1.60,217.20 -1.60,12.80"/>
    </edge>
    <edge id="3to2" from="n3" to="n2" priority="-1">
        <lane id="3to2_0" index="0" speed="13.89" length="204.40" shape="-32.80,261.20 -237.20,261.20"/>
        <lane id="3to2_1" index="1" speed="13.89" length="204.40" shape="-32.80,258.00 -237.20,258.00"/>
        <lane id="3to2_2" index="2" speed="13.89" length="204.40" shape="-32.80,254.80 -237.20,254.80"/>
        <lane id="3to2_3" index="3" speed="13.89" length="204.40" shape="-32.80,251.60 -237.20,251.60"/>
    </edge>
    <edge id="3to4" from="n3" to="n4" priority="-1">
        <lane id="3to4_0" index="0" speed="13.89" length="204.40" shape="32.80,238.80 237.20,238.80"/>
        <lane id="3to4_1" index="1" speed="13.89" length="204.40" shape="32.80,242.00 237.20,242.00"/>
        <lane id="3to4_2" index="2" speed="13.89" length="204.40" shape="32.80,245.20 237.20,245.20"/>
        <lane id="3to4_3" index="3" speed="13.89" length="204.40" shape="32.80,248.40 237.20,248.40"/>
    </edge>
    <edge id="3to5" from="n3" to="n5" priority="-1">
        <lane id="3to5_0" index="0" speed="13.89" length="204.40" shape="11.20,282.80 11.20,487.20"/>
        <lane id="3to5_1" index="1" speed="13.89" length="204.40" shape="8.00,282.80 8.00,487.20"/>
        <lane id="3to5_2" index="2" speed="13.89" length="204.40" shape="4.80,282.80 4.80,487.20"/>
        <lane id="3to5_3" index="3" speed="13.89" length="204.40" shape="1.60,282.80 1.60,487.20"/>
    </edge>
    <edge id="4to3" from="n4" to="n3" priority="-1">
        <lane id="4to3_0" index="0" speed="13.89" length="204.40" shape="237.20,261.20 32.80,261.20"/>
        <lane id="4to3_1" index="1" speed="13.89" length="204.40" shape="237.20,258.00 32.80,258.00"/>
        <lane id="4to3_2" index="2" speed="13.89" length="204.40" shape="237.20,254.80 32.80,254.80"/>
        <lane id="4to3_3" index="3" speed="13.89" length="204.40" shape="237.20,251.60 32.80,251.60"/>
    </edge>
    <edge id="4to6" from="n4" to="n6" priority="-1">
        <lane id="4to6_0" index="0" speed="13.89" length="224.40" shape="261.20,262.80 261.20,487.20"/>
        <lane id="4to6_1" index="1" speed="13.89" length="224.40" shape="258.00,262.80 258.00,487.20"/>
        <lane id="4to6_2" index="2" speed="13.89" length="224.40" shape="254.80,262.80 254.80,487.20"/>
        <lane id="4to6_3" index="3" speed="13.89" length="224.40" shape="251.60,262.80 251.60,487.20"/>
    </edge>
    <edge id="5to3" from="n5" to="n3" priority="-1">
        <lane id="5to3_0" index="0" speed="13.89" length="204.40" shape="-11.20,487.20 -11.20,282.80"/>
        <lane id="5to3_1" index="1" speed="13.89" length="204.40" shape="-8.00,487.20 -8.00,282.80"/>
        <lane id="5to3_2" index="2" speed="13.89" length="204.40" shape="-4.80,487.20 -4.80,282.80"/>
        <lane id="5to3_3" index="3" speed="13.89" length="204.40" shape="-1.60,487.20 -1.60,282.80"/>
    </edge>
    <edge id="5to6" from="n5" to="n6" priority="-1">
        <lane id="5to6_0" index="0" speed="13.89" length="224.40" shape="12.80,488.80 237.20,488.80"/>
        <lane id="5to6_1" index="1" speed="13.89" length="224.40" shape="12.80,492.00 237.20,492.00"/>
        <lane id="5to6_2" index="2" speed="13.89" length="224.40" shape="12.80,495.20 237.20,495.20"/>
        <lane id="5to6_3" index="3" speed="13.89" length="224.40" shape="12.80,498.40 237.20,498.40"/>
    </edge>
    <edge id="6to4" from="n6" to="n4" priority="-1">
        <lane id="6to4_0" index="0" speed="13.89" length="224.40" shape="238.80,487.20 238.80,262.80"/>
        <lane id="6to4_1" index="1" speed="13.89" length="224.40" shape="242.00,487.20 242.00,262.80"/>
        <lane id="6to4_2" index="2" speed="13.89" length="224.40" shape="245.20,487.20 245.20,262.80"/>
        <lane id="6to4_3" index="3" speed="13.89" length="224.40" shape="248.40,487.20 248.40,262.80"/>
    </edge>
    <edge id="6to5" from="n6" to="n5" priority="-1">
        <lane id="6to5_0" index="0" speed="13.89" length="224.40" shape="237.20,511.20 12.80,511.20"/>
        <lane id="6to5_1" index="1" speed="13.89" length="224.40" shape="237.20,508.00 12.80,508.00"/>
        <lane id="6to5_2" index="2" speed="13.89" length="224.40" shape="237.20,504.80 12.80,504.80"/>
        <lane id="6to5_3" index="3" speed="13.89" length="224.40" shape="237.20,501.60 12.80,501.60"/>
    </edge>

    <tlLogic id="n3" type="static" programID="0" offset="0">
        <phase duration="60" state="gGGrgrrrgGGrgrrr"/>
        <phase duration="5"  state="gyyrgrrrgyyrgrrr"/>
        <phase duration="60" state="grrrgrrGgrrrgrrG"/>
        <phase duration="3"  state="grrrgrrygrrrgrry"/>
        <phase duration="60" state="grrrgGGrgrrrgGGr"/>
        <phase duration="5"  state="grrrgyyrgrrrgyyr"/>
        <phase duration="60" state="grrGgrrrgrrGgrrr"/>
        <phase duration="3"  state="grrygrrrgrrygrrr"/>
    </tlLogic>

    <junction id="n0" type="priority" x="-250.00" y="0.00" incLanes="2to0_0 2to0_1 2to0_2 2to0_3 1to0_0 1to0_1 1to0_2 1to0_3" intLanes=":n0_0_0 :n0_0_1 :n0_0_2 :n0_0_3 :n0_4_0 :n0_4_1 :n0_4_2 :n0_4_3" shape="-262.80,12.80 -237.20,12.80 -237.20,-12.80 -245.02,-12.09 -251.42,-9.96 -256.40,-6.40 -259.96,-1.42 -262.09,4.98">
        <request index="0" response="00000000" foes="00000000" cont="0"/>
        <request index="1" response="00000000" foes="00000000" cont="0"/>
        <request index="2" response="00000000" foes="00000000" cont="0"/>
        <request index="3" response="00000000" foes="00000000" cont="0"/>
        <request index="4" response="00000000" foes="00000000" cont="0"/>
        <request index="5" response="00000000" foes="00000000" cont="0"/>
        <request index="6" response="00000000" foes="00000000" cont="0"/>
        <request index="7" response="00000000" foes="00000000" cont="0"/>
    </junction>
    <junction id="n1" type="priority" x="0.00" y="0.00" incLanes="3to1_0 3to1_1 3to1_2 3to1_3 0to1_0 0to1_1 0to1_2 0to1_3" intLanes=":n1_0_0 :n1_0_1 :n1_0_2 :n1_0_3 :n1_4_0 :n1_4_1 :n1_4_2 :n1_4_3" shape="-12.80,12.80 12.80,12.80 12.09,4.98 9.96,-1.42 6.40,-6.40 1.42,-9.96 -4.98,-12.09 -12.80,-12.80">
        <request index="0" response="00000000" foes="00000000" cont="0"/>
        <request index="1" response="00000000" foes="00000000" cont="0"/>
        <request index="2" response="00000000" foes="00000000" cont="0"/>
        <request index="3" response="00000000" foes="00000000" cont="0"/>
        <request index="4" response="00000000" foes="00000000" cont="0"/>
        <request index="5" response="00000000" foes="00000000" cont="0"/>
        <request index="6" response="00000000" foes="00000000" cont="0"/>
        <request index="7" response="00000000" foes="00000000" cont="0"/>
    </junction>
    <junction id="n2" type="priority" x="-250.00" y="250.00" incLanes="3to2_0 3to2_1 3to2_2 3to2_3 0to2_0 0to2_1 0to2_2 0to2_3" intLanes=":n2_0_0 :n2_0_1 :n2_0_2 :n2_0_3 :n2_4_0 :n2_4_1 :n2_4_2 :n2_4_3" shape="-237.20,262.80 -237.20,237.20 -262.80,237.20 -262.09,245.02 -259.96,251.42 -256.40,256.40 -251.42,259.96 -245.02,262.09">
        <request index="0" response="00000000" foes="00000000" cont="0"/>
        <request index="1" response="00000000" foes="00000000" cont="0"/>
        <request index="2" response="00000000" foes="00000000" cont="0"/>
        <request index="3" response="00000000" foes="00000000" cont="0"/>
        <request index="4" response="00000000" foes="00000000" cont="0"/>
        <request index="5" response="00000000" foes="00000000" cont="0"/>
        <request index="6" response="00000000" foes="00000000" cont="0"/>
        <request index="7" response="00000000" foes="00000000" cont="0"/>
    </junction>
    <junction id="n3" type="traffic_light_unregulated" x="0.00" y="250.00" incLanes="5to3_0 5to3_1 5to3_2 5to3_3 4to3_0 4to3_1 4to3_2 4to3_3 1to3_0 1to3_1 1to3_2 1to3_3 2to3_0 2to3_1 2to3_2 2to3_3" intLanes=":n3_0_0 :n3_1_0 :n3_1_1 :n3_3_0 :n3_4_0 :n3_5_0 :n3_5_1 :n3_7_0 :n3_8_0 :n3_9_0 :n3_9_1 :n3_11_0 :n3_12_0 :n3_13_0 :n3_13_1 :n3_15_0" shape="-12.80,282.80 12.80,282.80 13.36,276.69 15.02,271.69 17.80,267.80 21.69,265.02 26.69,263.36 32.80,262.80 32.80,237.20 26.69,236.64 21.69,234.98 17.80,232.20 15.02,228.31 13.36,223.31 12.80,217.20 -12.80,217.20 -13.36,223.31 -15.02,228.31 -17.80,232.20 -21.69,234.98 -26.69,236.64 -32.80,237.20 -32.80,262.80 -26.69,263.36 -21.69,265.02 -17.80,267.80 -15.02,271.69 -13.36,276.69" radius="20.00"/>
    <junction id="n4" type="priority" x="250.00" y="250.00" incLanes="6to4_0 6to4_1 6to4_2 6to4_3 3to4_0 3to4_1 3to4_2 3to4_3" intLanes=":n4_0_0 :n4_0_1 :n4_0_2 :n4_0_3 :n4_4_0 :n4_4_1 :n4_4_2 :n4_4_3" shape="237.20,262.80 262.80,262.80 262.09,254.98 259.96,248.58 256.40,243.60 251.42,240.04 245.02,237.91 237.20,237.20">
        <request index="0" response="00000000" foes="00000000" cont="0"/>
        <request index="1" response="00000000" foes="00000000" cont="0"/>
        <request index="2" response="00000000" foes="00000000" cont="0"/>
        <request index="3" response="00000000" foes="00000000" cont="0"/>
        <request index="4" response="00000000" foes="00000000" cont="0"/>
        <request index="5" response="00000000" foes="00000000" cont="0"/>
        <request index="6" response="00000000" foes="00000000" cont="0"/>
        <request index="7" response="00000000" foes="00000000" cont="0"/>
    </junction>
    <junction id="n5" type="priority" x="0.00" y="500.00" incLanes="6to5_0 6to5_1 6to5_2 6to5_3 3to5_0 3to5_1 3to5_2 3to5_3" intLanes=":n5_0_0 :n5_0_1 :n5_0_2 :n5_0_3 :n5_4_0 :n5_4_1 :n5_4_2 :n5_4_3" shape="12.80,512.80 12.80,487.20 -12.80,487.20 -12.09,495.02 -9.96,501.42 -6.40,506.40 -1.42,509.96 4.98,512.09">
        <request index="0" response="00000000" foes="00000000" cont="0"/>
        <request index="1" response="00000000" foes="00000000" cont="0"/>
        <request index="2" response="00000000" foes="00000000" cont="0"/>
        <request index="3" response="00000000" foes="00000000" cont="0"/>
        <request index="4" response="00000000" foes="00000000" cont="0"/>
        <request index="5" response="00000000" foes="00000000" cont="0"/>
        <request index="6" response="00000000" foes="00000000" cont="0"/>
        <request index="7" response="00000000" foes="00000000" cont="0"/>
    </junction>
    <junction id="n6" type="priority" x="250.00" y="500.00" incLanes="4to6_0 4to6_1 4to6_2 4to6_3 5to6_0 5to6_1 5to6_2 5to6_3" intLanes=":n6_0_0 :n6_0_1 :n6_0_2 :n6_0_3 :n6_4_0 :n6_4_1 :n6_4_2 :n6_4_3" shape="262.80,487.20 237.20,487.20 237.20,512.80 245.02,512.09 251.42,509.96 256.40,506.40 259.96,501.42 262.09,495.02">
        <request index="0" response="00000000" foes="00000000" cont="0"/>
        <request index="1" response="00000000" foes="00000000" cont="0"/>
        <request index="2" response="00000000" foes="00000000" cont="0"/>
        <request index="3" response="00000000" foes="00000000" cont="0"/>
        <request index="4" response="00000000" foes="00000000" cont="0"/>
        <request index="5" response="00000000" foes="00000000" cont="0"/>
        <request index="6" response="00000000" foes="00000000" cont="0"/>
        <request index="7" response="00000000" foes="00000000" cont="0"/>
    </junction>

    <connection from="0to1" to="1to3" fromLane="0" toLane="0" via=":n1_4_0" dir="l" state="M"/>
    <connection from="0to1" to="1to3" fromLane="1" toLane="1" via=":n1_4_1" dir="l" state="M"/>
    <connection from="0to1" to="1to3" fromLane="2" toLane="2" via=":n1_4_2" dir="l" state="M"/>
    <connection from="0to1" to="1to3" fromLane="3" toLane="3" via=":n1_4_3" dir="l" state="M"/>
    <connection from="0to2" to="2to3" fromLane="0" toLane="0" via=":n2_4_0" dir="r" state="M"/>
    <connection from="0to2" to="2to3" fromLane="1" toLane="1" via=":n2_4_1" dir="r" state="M"/>
    <connection from="0to2" to="2to3" fromLane="2" toLane="2" via=":n2_4_2" dir="r" state="M"/>
    <connection from="0to2" to="2to3" fromLane="3" toLane="3" via=":n2_4_3" dir="r" state="M"/>
    <connection from="1to0" to="0to2" fromLane="0" toLane="0" via=":n0_4_0" dir="r" state="M"/>
    <connection from="1to0" to="0to2" fromLane="1" toLane="1" via=":n0_4_1" dir="r" state="M"/>
    <connection from="1to0" to="0to2" fromLane="2" toLane="2" via=":n0_4_2" dir="r" state="M"/>
    <connection from="1to0" to="0to2" fromLane="3" toLane="3" via=":n0_4_3" dir="r" state="M"/>
    <connection from="1to3" to="3to4" fromLane="0" toLane="0" via=":n3_8_0" tl="n3" linkIndex="8" dir="r" state="O"/>
    <connection from="1to3" to="3to5" fromLane="1" toLane="1" via=":n3_9_0" tl="n3" linkIndex="9" dir="s" state="O"/>
    <connection from="1to3" to="3to5" fromLane="2" toLane="2" via=":n3_9_1" tl="n3" linkIndex="10" dir="s" state="O"/>
    <connection from="1to3" to="3to2" fromLane="3" toLane="3" via=":n3_11_0" tl="n3" linkIndex="11" dir="l" state="O"/>
    <connection from="2to0" to="0to1" fromLane="0" toLane="0" via=":n0_0_0" dir="l" state="M"/>
    <connection from="2to0" to="0to1" fromLane="1" toLane="1" via=":n0_0_1" dir="l" state="M"/>
    <connection from="2to0" to="0to1" fromLane="2" toLane="2" via=":n0_0_2" dir="l" state="M"/>
    <connection from="2to0" to="0to1" fromLane="3" toLane="3" via=":n0_0_3" dir="l" state="M"/>
    <connection from="2to3" to="3to1" fromLane="0" toLane="0" via=":n3_12_0" tl="n3" linkIndex="12" dir="r" state="O"/>
    <connection from="2to3" to="3to4" fromLane="1" toLane="1" via=":n3_13_0" tl="n3" linkIndex="13" dir="s" state="O"/>
    <connection from="2to3" to="3to4" fromLane="2" toLane="2" via=":n3_13_1" tl="n3" linkIndex="14" dir="s" state="O"/>
    <connection from="2to3" to="3to5" fromLane="3" toLane="3" via=":n3_15_0" tl="n3" linkIndex="15" dir="l" state="O"/>
    <connection from="3to1" to="1to0" fromLane="0" toLane="0" via=":n1_0_0" dir="r" state="M"/>
    <connection from="3to1" to="1to0" fromLane="1" toLane="1" via=":n1_0_1" dir="r" state="M"/>
    <connection from="3to1" to="1to0" fromLane="2" toLane="2" via=":n1_0_2" dir="r" state="M"/>
    <connection from="3to1" to="1to0" fromLane="3" toLane="3" via=":n1_0_3" dir="r" state="M"/>
    <connection from="3to2" to="2to0" fromLane="0" toLane="0" via=":n2_0_0" dir="l" state="M"/>
    <connection from="3to2" to="2to0" fromLane="1" toLane="1" via=":n2_0_1" dir="l" state="M"/>
    <connection from="3to2" to="2to0" fromLane="2" toLane="2" via=":n2_0_2" dir="l" state="M"/>
    <connection from="3to2" to="2to0" fromLane="3" toLane="3" via=":n2_0_3" dir="l" state="M"/>
    <connection from="3to4" to="4to6" fromLane="0" toLane="0" via=":n4_4_0" dir="l" state="M"/>
    <connection from="3to4" to="4to6" fromLane="1" toLane="1" via=":n4_4_1" dir="l" state="M"/>
    <connection from="3to4" to="4to6" fromLane="2" toLane="2" via=":n4_4_2" dir="l" state="M"/>